<?xml version="1.0" encoding="utf-8"?>
<!DOCTYPE population SYSTEM "http://www.matsim.org/files/dtd/population_v6.dtd">

<population desc="population written from streaming">


	<!-- ====================================================================== -->

	<person id="P_1028132">
		<attributes>
			<attribute name="age" class="java.lang.Integer">35</attribute>
			<attribute name="age_cat" class="java.lang.Integer">3</attribute>
			<attribute name="car_available" class="java.lang.Integer">0</attribute>
			<attribute name="current_edu" class="java.lang.Integer">0</attribute>
			<attribute name="level_of_employment_cat" class="java.lang.Integer">2</attribute>
			<attribute name="employed" class="java.lang.Boolean">true</attribute>
			<attribute name="hasLicense" class="java.lang.String">false</attribute>
			<attribute name="initialActivityEndTimes" class="java.lang.String">
				44205.0_45626.0_70326.0
			</attribute>
			<attribute name="mobility" class="java.lang.Integer">2</attribute>
			<attribute name="residence_msr_id" class="java.lang.Integer">97</attribute>
			<attribute name="pt_subscr" class="java.lang.String">GA</attribute>
			<attribute name="sex" class="java.lang.String">0</attribute>
			<attribute name="subpopulation" class="java.lang.String">regular</attribute>
			<attribute name="residence_zone_id" class="java.lang.String">611701001.0</attribute>
		</attributes>
		<plan selected="yes">
			<activity type="home_1020" facility="H_397417" x="618206.0" y="130272.0"
					  start_time="00:00:00" end_time="12:02:26">
				<attributes>
					<attribute name="next_trip_id" class="java.lang.String">0</attribute>
		  		</attributes>

			</activity>
			<leg mode="pt">
			</leg>
			<activity type="leisure_30" facility="H_3063929" x="617378.0" y="130005.0"
					  start_time="12:06:40" end_time="12:35:53">
					  				<attributes>
					<attribute name="next_trip_id" class="java.lang.String">1</attribute>
		  		</attributes>
			</activity>
			<leg mode="pt">
			</leg>
			<activity type="education_420_np" facility="B_373550" x="614368.0" y="136564.0"
					  start_time="12:55:44" end_time="19:25:56">
					  				<attributes>
					<attribute name="next_trip_id" class="java.lang.String">2</attribute>
		  		</attributes>
			</activity>
			<leg mode="pt">
			</leg>
			<activity type="home_1020" facility="H_397417" x="618206.0" y="130272.0">
			</activity>
		</plan>

	</person>

	<!-- ====================================================================== -->

	<person id="P_107098">
		<attributes>
			<attribute name="age" class="java.lang.Integer">35</attribute>
			<attribute name="age_cat" class="java.lang.Integer">3</attribute>
			<attribute name="car_available" class="java.lang.Integer">0</attribute>
			<attribute name="current_edu" class="java.lang.Integer">0</attribute>
			<attribute name="level_of_employment_cat" class="java.lang.Integer">4</attribute>
			<attribute name="employed" class="java.lang.Boolean">true</attribute>
			<attribute name="hasLicense" class="java.lang.String">false</attribute>
			<attribute name="initialActivityEndTimes" class="java.lang.String">
				19352.0_27031.0_36960.0_44529.0_65203.0_67974.0_72740.0
			</attribute>
			<attribute name="mobility" class="java.lang.Integer">0</attribute>
			<attribute name="residence_msr_id" class="java.lang.Integer">97</attribute>
			<attribute name="pt_subscr" class="java.lang.String">none</attribute>
			<attribute name="sex" class="java.lang.String">0</attribute>
			<attribute name="subpopulation" class="java.lang.String">regular</attribute>
			<attribute name="residence_zone_id" class="java.lang.String">611101001.0</attribute>
		</attributes>
		<plan selected="yes">
			<activity type="home_600" facility="H_41584" x="614402.0" y="136091.0"
					  start_time="00:00:00" end_time="05:28:09">
			</activity>
			<leg mode="walk_main">
			</leg>
			<activity type="leisure_120" facility="B_29948" x="614642.0" y="136842.0"
					  start_time="05:41:14" end_time="07:19:01">
			</activity>
			<leg mode="walk_main">
			</leg>
			<activity type="work_180_mp" facility="B_321117" x="614704.0" y="136028.0"
					  start_time="07:32:33" end_time="10:41:47">
			</activity>
			<leg mode="walk_main">
			</leg>
			<activity type="home_120" facility="H_41584" x="614402.0" y="136091.0"
					  start_time="10:46:54" end_time="12:27:11">
			</activity>
			<leg mode="walk_main">
			</leg>
			<activity type="work_360_np" facility="B_321117" x="614704.0" y="136028.0"
					  start_time="12:32:18" end_time="17:53:32">
			</activity>
			<leg mode="walk_main">
			</leg>
			<activity type="home_60_18.0" facility="H_41584" x="614402.0" y="136091.0"
					  start_time="17:58:39" end_time="18:53:11">
			</activity>
			<leg mode="walk_main">
			</leg>
			<activity type="leisure_90" facility="B_127874" x="614597.0" y="136514.0"
					  start_time="19:00:54" end_time="19:59:29">
			</activity>
			<leg mode="walk_main">
			</leg>
			<activity type="home_600" facility="H_41584" x="614402.0" y="136091.0"
					  start_time="20:07:12">
			</activity>
		</plan>

	</person>

	<!-- ====================================================================== -->

	<person id="P_1072505">
		<attributes>
			<attribute name="age" class="java.lang.Integer">70</attribute>
			<attribute name="age_cat" class="java.lang.Integer">5</attribute>
			<attribute name="car_available" class="java.lang.Integer">1</attribute>
			<attribute name="current_edu" class="java.lang.Integer">0</attribute>
			<attribute name="level_of_employment_cat" class="java.lang.Integer">1</attribute>
			<attribute name="employed" class="java.lang.Boolean">false</attribute>
			<attribute name="hasLicense" class="java.lang.String">true</attribute>
			<attribute name="initialActivityEndTimes" class="java.lang.String">
				52693.0_55686.0_64056.0_65809.0
			</attribute>
			<attribute name="mobility" class="java.lang.Integer">10</attribute>
			<attribute name="residence_msr_id" class="java.lang.Integer">97</attribute>
			<attribute name="pt_subscr" class="java.lang.String">none</attribute>
			<attribute name="sex" class="java.lang.String">0</attribute>
			<attribute name="subpopulation" class="java.lang.String">regular</attribute>
			<attribute name="residence_zone_id" class="java.lang.String">611101002.0</attribute>
		</attributes>
		<plan selected="yes">
			<activity type="home_1260_19.0" facility="H_414774" x="614779.0" y="136521.0"
					  start_time="00:00:00" end_time="14:20:37">
			</activity>
			<leg mode="pt">
			</leg>
			<activity type="shopping_60" facility="B_197941" x="614392.0" y="136231.0"
					  start_time="14:24:22" end_time="15:24:46">
			</activity>
			<leg mode="pt">
			</leg>
			<activity type="home_180" facility="H_414774" x="614779.0" y="136521.0"
					  start_time="15:27:53" end_time="17:56:29">
			</activity>
			<leg mode="walk_main">
			</leg>
			<activity type="shopping_30" facility="B_34117" x="614649.0" y="136584.0"
					  start_time="17:58:52" end_time="18:36:00">
			</activity>
			<leg mode="walk_main">
			</leg>
			<activity type="home_1260_19.0" facility="H_414774" x="614779.0" y="136521.0"
					  start_time="18:38:23">
			</activity>
		</plan>

	</person>

	<!-- ====================================================================== -->

	<person id="P_1131550">
		<attributes>
			<attribute name="age" class="java.lang.Integer">48</attribute>
			<attribute name="age_cat" class="java.lang.Integer">4</attribute>
			<attribute name="car_available" class="java.lang.Integer">1</attribute>
			<attribute name="cut" class="java.lang.Boolean">true</attribute>
			<attribute name="current_edu" class="java.lang.Integer">0</attribute>
			<attribute name="level_of_employment_cat" class="java.lang.Integer">4</attribute>
			<attribute name="employed" class="java.lang.Boolean">true</attribute>
			<attribute name="hasLicense" class="java.lang.String">true</attribute>
			<attribute name="initialActivityEndTimes" class="java.lang.String">68134.0_72045.0
			</attribute>
			<attribute name="mobility" class="java.lang.Integer">10</attribute>
			<attribute name="residence_msr_id" class="java.lang.Integer">98</attribute>
			<attribute name="pt_subscr" class="java.lang.String">none</attribute>
			<attribute name="sex" class="java.lang.String">0</attribute>
			<attribute name="subpopulation" class="java.lang.String">regular</attribute>
			<attribute name="residence_zone_id" class="java.lang.String">623801001.0</attribute>
		</attributes>
		<plan selected="yes">
			<activity type="outside" x="605889.0" y="125314.0" end_time="19:04:55">
			</activity>
			<leg mode="pt">
			</leg>
			<activity type="leisure_30" facility="B_228261" x="614224.0" y="134386.0"
					  start_time="19:31:31" end_time="20:00:45">
			</activity>
			<leg mode="pt">
			</leg>
			<activity type="outside" x="605858.5" y="125360.5" end_time="20:35:17">
			</activity>
		</plan>

	</person>

	<!-- ====================================================================== -->

	<person id="P_1162033">
		<attributes>
			<attribute name="age" class="java.lang.Integer">35</attribute>
			<attribute name="age_cat" class="java.lang.Integer">3</attribute>
			<attribute name="car_available" class="java.lang.Integer">1</attribute>
			<attribute name="cut" class="java.lang.Boolean">true</attribute>
			<attribute name="current_edu" class="java.lang.Integer">0</attribute>
			<attribute name="level_of_employment_cat" class="java.lang.Integer">4</attribute>
			<attribute name="employed" class="java.lang.Boolean">true</attribute>
			<attribute name="hasLicense" class="java.lang.String">true</attribute>
			<attribute name="initialActivityEndTimes" class="java.lang.String">28725.0_60442.0
			</attribute>
			<attribute name="mobility" class="java.lang.Integer">11</attribute>
			<attribute name="residence_msr_id" class="java.lang.Integer">88</attribute>
			<attribute name="pt_subscr" class="java.lang.String">HTA</attribute>
			<attribute name="sex" class="java.lang.String">1</attribute>
			<attribute name="subpopulation" class="java.lang.String">regular</attribute>
			<attribute name="residence_zone_id" class="java.lang.String">540201003.0</attribute>
		</attributes>
		<plan selected="yes">
			<activity type="outside" x="605731.5" y="125272.5" end_time="08:25:25">
			</activity>
			<leg mode="pt">
			</leg>
			<activity type="work_480" facility="B_33682" x="614700.0" y="136406.0"
					  start_time="08:53:57" end_time="16:31:50">
			</activity>
			<leg mode="pt">
			</leg>
			<activity type="outside" x="605858.5" y="125360.5" end_time="17:35:07">
			</activity>
		</plan>

	</person>

	<!-- ====================================================================== -->

	<person id="P_1209570">
		<attributes>
			<attribute name="age" class="java.lang.Integer">37</attribute>
			<attribute name="age_cat" class="java.lang.Integer">3</attribute>
			<attribute name="car_available" class="java.lang.Integer">1</attribute>
			<attribute name="current_edu" class="java.lang.Integer">0</attribute>
			<attribute name="level_of_employment_cat" class="java.lang.Integer">3</attribute>
			<attribute name="employed" class="java.lang.Boolean">true</attribute>
			<attribute name="hasLicense" class="java.lang.String">true</attribute>
			<attribute name="initialActivityEndTimes" class="java.lang.String">
				26871.0_33699.0_49168.0_70036.0_74509.0
			</attribute>
			<attribute name="mobility" class="java.lang.Integer">10</attribute>
			<attribute name="residence_msr_id" class="java.lang.Integer">97</attribute>
			<attribute name="pt_subscr" class="java.lang.String">none</attribute>
			<attribute name="sex" class="java.lang.String">0</attribute>
			<attribute name="subpopulation" class="java.lang.String">regular</attribute>
			<attribute name="residence_zone_id" class="java.lang.String">611101001.0</attribute>
		</attributes>
		<plan selected="yes">
			<activity type="home_660" facility="H_468450" x="614357.0" y="135853.0"
					  start_time="00:00:00" end_time="07:03:28">
			</activity>
			<leg mode="walk_main">
			</leg>
			<activity type="business_120" facility="B_187413" x="614546.0" y="135647.0"
					  start_time="07:08:06" end_time="08:56:44">
			</activity>
			<leg mode="walk_main">
			</leg>
			<activity type="home_300" facility="H_468450" x="614357.0" y="135853.0"
					  start_time="09:01:22" end_time="13:35:40">
			</activity>
			<leg mode="pt">
			</leg>
			<activity type="work_360_np" facility="B_45932" x="614443.0" y="136396.0"
					  start_time="13:39:16" end_time="19:02:05">
			</activity>
			<leg mode="pt">
			</leg>
			<activity type="home_660" facility="H_468450" x="614357.0" y="135853.0"
					  start_time="20:39:03">
			</activity>
		</plan>

	</person>

	<!-- ====================================================================== -->

	<person id="P_1236757">
		<attributes>
			<attribute name="age" class="java.lang.Integer">12</attribute>
			<attribute name="age_cat" class="java.lang.Integer">1</attribute>
			<attribute name="car_available" class="java.lang.Integer">0</attribute>
			<attribute name="current_edu" class="java.lang.Integer">2</attribute>
			<attribute name="level_of_employment_cat" class="java.lang.Integer">1</attribute>
			<attribute name="employed" class="java.lang.Boolean">false</attribute>
			<attribute name="hasLicense" class="java.lang.String">false</attribute>
			<attribute name="initialActivityEndTimes" class="java.lang.String">61900.0_70925.0
			</attribute>
			<attribute name="mobility" class="java.lang.Integer">0</attribute>
			<attribute name="residence_msr_id" class="java.lang.Integer">97</attribute>
			<attribute name="pt_subscr" class="java.lang.String">none</attribute>
			<attribute name="sex" class="java.lang.String">0</attribute>
			<attribute name="subpopulation" class="java.lang.String">regular</attribute>
			<attribute name="residence_zone_id" class="java.lang.String">611101001.0</attribute>
		</attributes>
		<plan selected="yes">
			<activity type="home_1260" facility="H_479119" x="614824.0" y="136505.0"
					  start_time="00:00:00" end_time="17:09:35">
			</activity>
			<leg mode="walk_main">
			</leg>
			<activity type="shopping_120" facility="B_97437" x="614424.0" y="136452.0"
					  start_time="17:16:16" end_time="19:20:33">
			</activity>
			<leg mode="walk_main">
			</leg>
			<activity type="home_1260" facility="H_479119" x="614824.0" y="136505.0"
					  start_time="19:27:14">
			</activity>
		</plan>

	</person>

	<!-- ====================================================================== -->

	<person id="P_128229">
		<attributes>
			<attribute name="age" class="java.lang.Integer">49</attribute>
			<attribute name="age_cat" class="java.lang.Integer">4</attribute>
			<attribute name="car_available" class="java.lang.Integer">1</attribute>
			<attribute name="cut" class="java.lang.Boolean">true</attribute>
			<attribute name="current_edu" class="java.lang.Integer">0</attribute>
			<attribute name="level_of_employment_cat" class="java.lang.Integer">4</attribute>
			<attribute name="employed" class="java.lang.Boolean">true</attribute>
			<attribute name="hasLicense" class="java.lang.String">true</attribute>
			<attribute name="initialActivityEndTimes" class="java.lang.String">
				44760.0_46967.0_68618.0
			</attribute>
			<attribute name="mobility" class="java.lang.Integer">11</attribute>
			<attribute name="residence_msr_id" class="java.lang.Integer">98</attribute>
			<attribute name="pt_subscr" class="java.lang.String">HTA</attribute>
			<attribute name="sex" class="java.lang.String">1</attribute>
			<attribute name="subpopulation" class="java.lang.String">regular</attribute>
			<attribute name="residence_zone_id" class="java.lang.String">625001001.0</attribute>
		</attributes>
		<plan selected="yes">
			<activity type="outside" x="607878.0" y="128500.0" end_time="12:22:40">
			</activity>
			<leg mode="pt">
			</leg>
			<activity type="shopping_30" facility="B_197941" x="614392.0" y="136231.0"
					  start_time="12:54:23" end_time="13:19:24">
			</activity>
			<leg mode="pt">
			</leg>
			<activity type="work_360_np" facility="B_381102" x="614681.0" y="136431.0"
					  start_time="13:21:57" end_time="19:17:03">
			</activity>
			<leg mode="pt">
			</leg>
			<activity type="outside" x="607878.0" y="128500.0" end_time="19:49:04">
			</activity>
		</plan>

	</person>

	<!-- ====================================================================== -->

	<person id="P_1282698">
		<attributes>
			<attribute name="age" class="java.lang.Integer">13</attribute>
			<attribute name="age_cat" class="java.lang.Integer">1</attribute>
			<attribute name="car_available" class="java.lang.Integer">0</attribute>
			<attribute name="current_edu" class="java.lang.Integer">2</attribute>
			<attribute name="level_of_employment_cat" class="java.lang.Integer">1</attribute>
			<attribute name="employed" class="java.lang.Boolean">false</attribute>
			<attribute name="hasLicense" class="java.lang.String">false</attribute>
			<attribute name="initialActivityEndTimes" class="java.lang.String">
				27156.0_45339.0_46353.0_62225.0
			</attribute>
			<attribute name="mobility" class="java.lang.Integer">0</attribute>
			<attribute name="residence_msr_id" class="java.lang.Integer">97</attribute>
			<attribute name="pt_subscr" class="java.lang.String">none</attribute>
			<attribute name="sex" class="java.lang.String">1</attribute>
			<attribute name="subpopulation" class="java.lang.String">regular</attribute>
			<attribute name="residence_zone_id" class="java.lang.String">611101001.0</attribute>
		</attributes>
		<plan selected="yes">
			<activity type="home_840_18.0" facility="H_497191" x="614426.0" y="136390.0"
					  start_time="00:00:00" end_time="07:45:34">
			</activity>
			<leg mode="walk_main">
			</leg>
			<activity type="education_300_mp" facility="B_373550" x="614368.0" y="136564.0"
					  start_time="07:48:36" end_time="12:39:07">
			</activity>
			<leg mode="walk_main">
			</leg>
			<activity type="leisure_30" facility="B_5993" x="614751.0" y="136536.0"
					  start_time="12:45:29" end_time="13:06:08">
			</activity>
			<leg mode="walk_main">
			</leg>
			<activity type="education_300_np" facility="B_373550" x="614368.0" y="136564.0"
					  start_time="13:12:30" end_time="17:45:12">
			</activity>
			<leg mode="walk_main">
			</leg>
			<activity type="home_840_18.0" facility="H_497191" x="614426.0" y="136390.0"
					  start_time="17:48:14">
			</activity>
		</plan>

	</person>

	<!-- ====================================================================== -->

	<person id="P_1326385">
		<attributes>
			<attribute name="age" class="java.lang.Integer">28</attribute>
			<attribute name="age_cat" class="java.lang.Integer">3</attribute>
			<attribute name="car_available" class="java.lang.Integer">1</attribute>
			<attribute name="cut" class="java.lang.Boolean">true</attribute>
			<attribute name="current_edu" class="java.lang.Integer">0</attribute>
			<attribute name="level_of_employment_cat" class="java.lang.Integer">4</attribute>
			<attribute name="employed" class="java.lang.Boolean">true</attribute>
			<attribute name="hasLicense" class="java.lang.String">true</attribute>
			<attribute name="initialActivityEndTimes" class="java.lang.String">
				20622.0_23481.0_51938.0
			</attribute>
			<attribute name="mobility" class="java.lang.Integer">10</attribute>
			<attribute name="residence_msr_id" class="java.lang.Integer">97</attribute>
			<attribute name="pt_subscr" class="java.lang.String">none</attribute>
			<attribute name="sex" class="java.lang.String">1</attribute>
			<attribute name="subpopulation" class="java.lang.String">regular</attribute>
			<attribute name="residence_zone_id" class="java.lang.String">611001002.0</attribute>
		</attributes>
		<plan selected="yes">
			<activity type="outside" x="615386.0" y="128628.0" end_time="05:39:53">
			</activity>
			<leg mode="pt">
			</leg>
			<activity type="shopping_60" facility="B_481467" x="614566.0" y="136463.0"
					  start_time="06:00:36" end_time="06:48:44">
			</activity>
			<leg mode="pt">
			</leg>
			<activity type="outside" x="617851.0" y="128369.0" end_time="07:11:16">
			</activity>
		</plan>

	</person>

	<!-- ====================================================================== -->

	<person id="P_1398768">
		<attributes>
			<attribute name="age" class="java.lang.Integer">51</attribute>
			<attribute name="age_cat" class="java.lang.Integer">4</attribute>
			<attribute name="car_available" class="java.lang.Integer">1</attribute>
			<attribute name="current_edu" class="java.lang.Integer">0</attribute>
			<attribute name="level_of_employment_cat" class="java.lang.Integer">3</attribute>
			<attribute name="employed" class="java.lang.Boolean">true</attribute>
			<attribute name="hasLicense" class="java.lang.String">true</attribute>
			<attribute name="initialActivityEndTimes" class="java.lang.String">31619.0_67353.0
			</attribute>
			<attribute name="mobility" class="java.lang.Integer">10</attribute>
			<attribute name="residence_msr_id" class="java.lang.Integer">97</attribute>
			<attribute name="pt_subscr" class="java.lang.String">none</attribute>
			<attribute name="sex" class="java.lang.String">1</attribute>
			<attribute name="subpopulation" class="java.lang.String">regular</attribute>
			<attribute name="residence_zone_id" class="java.lang.String">611101002.0</attribute>
		</attributes>
		<plan selected="yes">
			<activity type="home_840_19.0" facility="H_542934" x="614375.0" y="136654.0"
					  start_time="00:00:00" end_time="08:30:00">
			</activity>
			<leg mode="pt">
			</leg>
			<activity type="work_600" facility="B_528705" x="614700.0" y="136406.0"
					  start_time="08:32:22" end_time="18:40:32">
			</activity>
			<leg mode="pt">
			</leg>
			<activity type="home_840_19.0" facility="H_542934" x="614375.0" y="136654.0"
					  start_time="18:43:53">
			</activity>
		</plan>

	</person>

	<!-- ====================================================================== -->

	<person id="P_143404">
		<attributes>
			<attribute name="age" class="java.lang.Integer">23</attribute>
			<attribute name="age_cat" class="java.lang.Integer">2</attribute>
			<attribute name="car_available" class="java.lang.Integer">1</attribute>
			<attribute name="cut" class="java.lang.Boolean">true</attribute>
			<attribute name="current_edu" class="java.lang.Integer">0</attribute>
			<attribute name="level_of_employment_cat" class="java.lang.Integer">4</attribute>
			<attribute name="employed" class="java.lang.Boolean">true</attribute>
			<attribute name="hasLicense" class="java.lang.String">true</attribute>
			<attribute name="initialActivityEndTimes" class="java.lang.String">
				31396.0_34379.0_40333.0_71737.0_82197.0
			</attribute>
			<attribute name="mobility" class="java.lang.Integer">10</attribute>
			<attribute name="residence_msr_id" class="java.lang.Integer">97</attribute>
			<attribute name="pt_subscr" class="java.lang.String">none</attribute>
			<attribute name="sex" class="java.lang.String">1</attribute>
			<attribute name="subpopulation" class="java.lang.String">regular</attribute>
			<attribute name="residence_zone_id" class="java.lang.String">610101001.0</attribute>
		</attributes>
		<plan selected="yes">
			<activity type="outside" x="617598.0" y="127193.0" end_time="11:37:10">
			</activity>
			<leg mode="pt">
			</leg>
			<activity type="work_540" facility="B_403628" x="614648.0" y="136566.0"
					  start_time="12:02:15" end_time="20:01:58">
			</activity>
			<leg mode="pt">
			</leg>
			<activity type="leisure_180" facility="B_150117" x="614436.0" y="136424.0"
					  start_time="20:04:15" end_time="22:56:04">
			</activity>
			<leg mode="pt">
			</leg>
			<activity type="outside" x="617598.0" y="127193.0" end_time="23:19:09">
			</activity>
		</plan>

	</person>

	<!-- ====================================================================== -->

	<person id="P_1471935">
		<attributes>
			<attribute name="age" class="java.lang.Integer">53</attribute>
			<attribute name="age_cat" class="java.lang.Integer">4</attribute>
			<attribute name="car_available" class="java.lang.Integer">1</attribute>
			<attribute name="current_edu" class="java.lang.Integer">0</attribute>
			<attribute name="level_of_employment_cat" class="java.lang.Integer">3</attribute>
			<attribute name="employed" class="java.lang.Boolean">true</attribute>
			<attribute name="hasLicense" class="java.lang.String">true</attribute>
			<attribute name="initialActivityEndTimes" class="java.lang.String">
				35666.0_60888.0_67972.0
			</attribute>
			<attribute name="mobility" class="java.lang.Integer">10</attribute>
			<attribute name="residence_msr_id" class="java.lang.Integer">97</attribute>
			<attribute name="pt_subscr" class="java.lang.String">none</attribute>
			<attribute name="sex" class="java.lang.String">0</attribute>
			<attribute name="subpopulation" class="java.lang.String">regular</attribute>
			<attribute name="residence_zone_id" class="java.lang.String">611101002.0</attribute>
		</attributes>
		<plan selected="yes">
			<activity type="home_900_19.0" facility="H_571755" x="614487.0" y="137068.0"
					  end_time="09:54:26">
			</activity>
			<leg mode="pt">
			</leg>
			<activity type="work_420" facility="B_371096" x="614368.0" y="136564.0"
					  start_time="10:01:20" end_time="16:54:48">
			</activity>
			<leg mode="pt">
			</leg>
			<activity type="leisure_120" facility="B_173575" x="614693.0" y="136465.0"
					  start_time="17:01:42" end_time="18:52:52">
			</activity>
			<leg mode="pt">
			</leg>
			<activity type="home_900_19.0" facility="H_571755" x="614487.0" y="137068.0"
					  start_time="18:59:46">
			</activity>
		</plan>

	</person>

	<!-- ====================================================================== -->

	<person id="P_1498213">
		<attributes>
			<attribute name="age" class="java.lang.Integer">41</attribute>
			<attribute name="age_cat" class="java.lang.Integer">3</attribute>
			<attribute name="car_available" class="java.lang.Integer">1</attribute>
			<attribute name="cut" class="java.lang.Boolean">true</attribute>
			<attribute name="current_edu" class="java.lang.Integer">0</attribute>
			<attribute name="level_of_employment_cat" class="java.lang.Integer">4</attribute>
			<attribute name="employed" class="java.lang.Boolean">true</attribute>
			<attribute name="hasLicense" class="java.lang.String">true</attribute>
			<attribute name="initialActivityEndTimes" class="java.lang.String">
				26417.0_37606.0_57487.0_78629.0
			</attribute>
			<attribute name="mobility" class="java.lang.Integer">10</attribute>
			<attribute name="residence_msr_id" class="java.lang.Integer">98</attribute>
			<attribute name="pt_subscr" class="java.lang.String">none</attribute>
			<attribute name="sex" class="java.lang.String">1</attribute>
			<attribute name="subpopulation" class="java.lang.String">regular</attribute>
			<attribute name="residence_zone_id" class="java.lang.String">623201001.0</attribute>
		</attributes>
		<plan selected="yes">
			<activity type="outside" x="605889.0" y="125314.0" end_time="06:57:52">
			</activity>
			<leg mode="pt">
			</leg>
			<activity type="work_180_mp" facility="B_197941" x="614392.0" y="136231.0"
					  start_time="07:27:52" end_time="10:06:47">
			</activity>
			<leg mode="pt">
			</leg>
			<activity type="outside" x="605858.5" y="125360.5" end_time="10:41:10">
			</activity>
			<leg mode="outside">
			</leg>
			<activity type="outside" x="605889.0" y="125314.0" end_time="16:31:39">
			</activity>
			<leg mode="pt">
			</leg>
			<activity type="work_360" facility="B_197941" x="614392.0" y="136231.0"
					  start_time="16:59:39" end_time="22:02:32">
			</activity>
			<leg mode="pt">
			</leg>
			<activity type="outside" x="605858.5" y="125360.5" end_time="22:36:42">
			</activity>
		</plan>

	</person>

	<!-- ====================================================================== -->

	<person id="P_1539416">
		<attributes>
			<attribute name="age" class="java.lang.Integer">9</attribute>
			<attribute name="age_cat" class="java.lang.Integer">1</attribute>
			<attribute name="car_available" class="java.lang.Integer">0</attribute>
			<attribute name="current_edu" class="java.lang.Integer">1</attribute>
			<attribute name="level_of_employment_cat" class="java.lang.Integer">1</attribute>
			<attribute name="employed" class="java.lang.Boolean">false</attribute>
			<attribute name="hasLicense" class="java.lang.String">false</attribute>
			<attribute name="initialActivityEndTimes" class="java.lang.String">
				29441.0_45610.0_48684.0_62693.0
			</attribute>
			<attribute name="mobility" class="java.lang.Integer">0</attribute>
			<attribute name="residence_msr_id" class="java.lang.Integer">97</attribute>
			<attribute name="pt_subscr" class="java.lang.String">none</attribute>
			<attribute name="sex" class="java.lang.String">0</attribute>
			<attribute name="subpopulation" class="java.lang.String">regular</attribute>
			<attribute name="residence_zone_id" class="java.lang.String">611701001.0</attribute>
		</attributes>
		<plan selected="yes">
			<activity type="home_900_18.0" facility="H_598373" x="617239.0" y="129895.0"
					  start_time="00:00:00" end_time="07:49:24">
			</activity>
			<leg mode="pt">
			</leg>
			<activity type="education_300_mp" facility="B_373550" x="614368.0" y="136564.0"
					  start_time="08:08:53" end_time="12:34:33">
			</activity>
			<leg mode="pt">
			</leg>
			<activity type="home_60" facility="H_598373" x="617239.0" y="129895.0"
					  start_time="12:54:04" end_time="13:41:42">
			</activity>
			<leg mode="pt">
			</leg>
			<activity type="education_240" facility="B_373550" x="614368.0" y="136564.0"
					  start_time="14:01:25" end_time="17:33:45">
			</activity>
			<leg mode="pt">
			</leg>
			<activity type="home_900_18.0" facility="H_598373" x="617239.0" y="129895.0"
					  start_time="17:53:18">
			</activity>
		</plan>

	</person>

	<!-- ====================================================================== -->
